[Format]      =  4.0
[Frequency]   =  0
[Precision]   =  1e-008
[MinAngle]    =  15
[DoSmartMesh] =  1
[Depth]       =  200
[LengthUnits] =  millimeters
[ProblemType] =  planar
[Coordinates] =  cartesian
[ACSolver]    =  0
[PrevType]    =  0
[PrevSoln]    =  ""
[Comment]     =  "Add comments here."
[PointProps]   = 1
  <BeginPoint>
    <PointName> = "A0"
    <I_re> = 0
    <I_im> = 0
    <A_re> = 0
    <A_im> = 0
  <EndPoint>
[BdryProps]   = 8
  <BeginBdry>
    <BdryName> = "PB1"
    <BdryType> = 5
    <A_0> = 0
    <A_1> = 0
    <A_2> = 0
    <Phi> = 0
    <c0> = 0
    <c0i> = 0
    <c1> = 0
    <c1i> = 0
    <Mu_ssd> = 0
    <Sigma_ssd> = 0
    <innerangle> = 0
    <outerangle> = 0
  <EndBdry>
  <BeginBdry>
    <BdryName> = "PB2"
    <BdryType> = 5
    <A_0> = 0
    <A_1> = 0
    <A_2> = 0
    <Phi> = 0
    <c0> = 0
    <c0i> = 0
    <c1> = 0
    <c1i> = 0
    <Mu_ssd> = 0
    <Sigma_ssd> = 0
    <innerangle> = 0
    <outerangle> = 0
  <EndBdry>
  <BeginBdry>
    <BdryName> = "PB3"
    <BdryType> = 5
    <A_0> = 0
    <A_1> = 0
    <A_2> = 0
    <Phi> = 0
    <c0> = 0
    <c0i> = 0
    <c1> = 0
    <c1i> = 0
    <Mu_ssd> = 0
    <Sigma_ssd> = 0
    <innerangle> = 0
    <outerangle> = 0
  <EndBdry>
  <BeginBdry>
    <BdryName> = "PB4"
    <BdryType> = 5
    <A_0> = 0
    <A_1> = 0
    <A_2> = 0
    <Phi> = 0
    <c0> = 0
    <c0i> = 0
    <c1> = 0
    <c1i> = 0
    <Mu_ssd> = 0
    <Sigma_ssd> = 0
    <innerangle> = 0
    <outerangle> = 0
  <EndBdry>
  <BeginBdry>
    <BdryName> = "PB5"
    <BdryType> = 5
    <A_0> = 0
    <A_1> = 0
    <A_2> = 0
    <Phi> = 0
    <c0> = 0
    <c0i> = 0
    <c1> = 0
    <c1i> = 0
    <Mu_ssd> = 0
    <Sigma_ssd> = 0
    <innerangle> = 0
    <outerangle> = 0
  <EndBdry>
  <BeginBdry>
    <BdryName> = "A=0"
    <BdryType> = 0
    <A_0> = 0
    <A_1> = 0
    <A_2> = 0
    <Phi> = 0
    <c0> = 0
    <c0i> = 0
    <c1> = 0
    <c1i> = 0
    <Mu_ssd> = 0
    <Sigma_ssd> = 0
    <innerangle> = 0
    <outerangle> = 0
  <EndBdry>
  <BeginBdry>
    <BdryName> = "PB6"
    <BdryType> = 5
    <A_0> = 0
    <A_1> = 0
    <A_2> = 0
    <Phi> = 0
    <c0> = 0
    <c0i> = 0
    <c1> = 0
    <c1i> = 0
    <Mu_ssd> = 0
    <Sigma_ssd> = 0
    <innerangle> = 0
    <outerangle> = 0
  <EndBdry>
  <BeginBdry>
    <BdryName> = "PB7"
    <BdryType> = 5
    <A_0> = 0
    <A_1> = 0
    <A_2> = 0
    <Phi> = 0
    <c0> = 0
    <c0i> = 0
    <c1> = 0
    <c1i> = 0
    <Mu_ssd> = 0
    <Sigma_ssd> = 0
    <innerangle> = 0
    <outerangle> = 0
  <EndBdry>
[BlockProps]  = 3
  <BeginBlock>
    <BlockName> = "M-27 Steel"
    <Mu_x> = 12138
    <Mu_y> = 12138
    <H_c> = 0
    <H_cAngle> = 0
    <J_re> = 0
    <J_im> = 0
    <Sigma> = 2
    <d_lam> = 0.63500000000000001
    <Phi_h> = 0
    <Phi_hx> = 0
    <Phi_hy> = 0
    <LamType> = 0
    <LamFill> = 0.97999999999999998
    <NStrands> = 0
    <WireD> = 0
    <BHPoints> = 47
      0	0
      0.050000000000000003	17.059828
      0.10000000000000001	25.634971
      0.14999999999999999	31.338353999999999
      0.20000000000000001	35.778996999999997
      0.25	39.602124000000003
      0.29999999999999999	43.123142999999999
      0.34999999999999998	46.520439000000003
      0.40000000000000002	49.908177000000002
      0.45000000000000001	53.368284000000003
      0.5	56.966318000000001
      0.55000000000000004	60.760271000000003
      0.59999999999999998	64.806105000000002
      0.65000000000000002	69.161803000000006
      0.69999999999999996	73.890922000000003
      0.75	79.066315000000003
      0.80000000000000004	84.774675999999999
      0.84999999999999998	91.122721999999996
      0.90000000000000002	98.246298999999993
      0.94999999999999996	106.324591
      1	115.60341699999999
      1.05	126.435124
      1.1000000000000001	139.34975900000001
      1.1499999999999999	155.187082
      1.2	175.350538
      1.25	202.312017
      1.3	240.640455
      1.3500000000000001	299.11802699999998
      1.3999999999999999	394.99338599999999
      1.45	561.72617700000001
      1.5	859.32876299999998
      1.55	1375.4668879999999
      1.6000000000000001	2191.2469139999998
      1.6499999999999999	3328.145908
      1.7	4760.5061720000003
      1.75	6535.3394490000001
      1.8	8788.9706569999998
      1.8500000000000001	11670.804346999999
      1.8999999999999999	15385.186211
      1.95	20246.553030999999
      2	26995.131141000002
      2.0499999999999998	38724.496369
      2.1000000000000001	64917.284463000004
      2.1499999999999999	101489.30933800001
      2.2000000000000002	137202.82896099999
      2.25	176835.706764
      2.2999999999999998	216374.28360900001
  <EndBlock>
  <BeginBlock>
    <BlockName> = "Air"
    <Mu_x> = 1
    <Mu_y> = 1
    <H_c> = 0
    <H_cAngle> = 0
    <J_re> = 0
    <J_im> = 0
    <Sigma> = 0
    <d_lam> = 0
    <Phi_h> = 0
    <Phi_hx> = 0
    <Phi_hy> = 0
    <LamType> = 0
    <LamFill> = 1
    <NStrands> = 0
    <WireD> = 0
    <BHPoints> = 0
  <EndBlock>
  <BeginBlock>
    <BlockName> = "N38"
    <Mu_x> = 1.05
    <Mu_y> = 1.05
    <H_c> = 944771
    <H_cAngle> = 0
    <J_re> = 0
    <J_im> = 0
    <Sigma> = 0.66700000000000004
    <d_lam> = 0
    <Phi_h> = 0
    <Phi_hx> = 0
    <Phi_hy> = 0
    <LamType> = 0
    <LamFill> = 1
    <NStrands> = 0
    <WireD> = 0
    <BHPoints> = 0
  <EndBlock>
[CircuitProps]  = 0
[NumPoints] = 44
0	72.5	0	0
6	72.5	0	0
16.440000000000001	72.5	0	0
28.440000000000001	72.5	0	0
38.880000000000003	72.5	0	0
50.880000000000003	72.5	0	0
0	112.5	0	0
43.470000000000077	0	0	0
43.470000000000077	10.000000000000011	0	0
100.69000000000052	10	0	0
100.69000000000052	0	0	0
38.420000000000002	0	0	0
38.420000000000002	-40	0	0
-2.326752072262517e-016	10.75	0	0
38.420000000000002	10.75	0	0
67.319999999999993	72.5	0	0
67.319999999999993	10.75	0	0
67.319999999999993	112.5	0	0
61.319999999999993	72.5	0	0
105.74000000000052	10.75	0	0
105.74000000000052	-40	0	0
105.74000000000052	0	0	0
20.440000000000001	11.5	0	0
20.440000000000001	14.5	0	0
16.440000000000001	14.5	0	0
2	11.5	0	0
2	14.5	0	0
6	14.5	0	0
24.440000000000001	11.499999999999989	0	0
24.440000000000001	14.5	0	0
28.440000000000001	14.5	0	0
42.880000000000003	11.499999999999989	0	0
42.880000000000003	14.5	0	0
38.880000000000003	14.5	0	0
65.320000000000007	11.499999999999989	0	0
65.320000000000007	14.5	0	0
61.320000000000007	14.5	0	0
46.880000000000003	11.499999999999989	0	0
46.880000000000003	14.5	0	0
50.880000000000003	14.5	0	0
0	11.5	0	0
67.319999999999993	11.5	0	0
38.420000000000009	10	0	0
105.74000000000053	10	0	0
[NumSegments] = 53
0	1	-1	0	0	0
2	3	-1	0	0	0
4	5	-1	0	0	0
0	6	-1	1	0	0
7	8	-1	0	0	2
8	9	-1	0	0	2
9	10	-1	0	0	2
11	12	-1	8	0	2
13	40	-1	3	0	0
14	42	-1	5	0	2
14	13	-1	4	0	0
15	41	-1	2	0	0
15	17	-1	1	0	0
17	6	-1	6	0	0
18	15	-1	0	0	0
19	43	-1	5	0	2
21	20	-1	8	0	2
11	7	-1	0	0	2
7	10	-1	0	0	2
10	21	-1	0	0	0
12	20	-1	6	0	2
22	23	-1	0	0	0
23	24	-1	0	0	0
25	26	-1	0	0	0
26	27	-1	0	0	0
1	27	-1	0	0	0
24	2	-1	0	0	0
25	22	-1	0	0	0
28	29	-1	0	0	0
29	30	-1	0	0	0
31	32	-1	0	0	0
32	33	-1	0	0	0
31	28	-1	0	0	0
3	30	-1	0	0	0
33	4	-1	0	0	0
34	35	-1	0	0	0
35	36	-1	0	0	0
37	38	-1	0	0	0
38	39	-1	0	0	0
37	34	-1	0	0	0
5	39	-1	0	0	0
36	18	-1	0	0	0
19	16	-1	4	0	0
40	0	-1	2	0	0
41	16	-1	3	0	0
34	41	-1	0	0	0
40	25	-1	0	0	0
42	11	-1	7	0	2
42	8	-1	0	0	0
43	21	-1	7	0	2
9	43	-1	0	0	0
22	28	-1	0	0	0
31	37	-1	0	0	0
[NumArcSegments] = 0
[NumHoles] = 0
[NumBlockLabels] = 10
32.799999999999997	93.599999999999994	1	-1	0	0	0	1	0
71.300000000000523	-21.100000000000001	1	-1	0	0	2	1	0
72.200000000000529	5.5999999999999996	3	-1	0	90	2	1	0
21.800000000000001	54.399999999999999	2	-1	0	0	0	1	0
41.300000000000054	5.2000000000000002	2	-1	0	0	2	1	0
103.50000000000053	5	2	-1	0	0	2	1	0
2.1000000000000001	55.299999999999997	2	-1	0	0	0	1	0
46.100000000000001	54.600000000000001	2	-1	0	0	0	1	0
63.899999999999999	55.299999999999997	2	-1	0	0	0	1	0
0.59999999999999998	11.1	2	0.29999999999999999	0	0	0	1	0
