[Format]      =  4.0
[Frequency]   =  0
[Precision]   =  1e-008
[MinAngle]    =  15
[DoSmartMesh] =  1
[Depth]       =  200
[LengthUnits] =  millimeters
[ProblemType] =  planar
[Coordinates] =  cartesian
[ACSolver]    =  0
[PrevType]    =  0
[PrevSoln]    =  ""
[Comment]     =  "Add comments here."
[PointProps]   = 1
  <BeginPoint>
    <PointName> = "A0"
    <I_re> = 0
    <I_im> = 0
    <A_re> = 0
    <A_im> = 0
  <EndPoint>
[BdryProps]   = 8
  <BeginBdry>
    <BdryName> = "PB1"
    <BdryType> = 4
    <A_0> = 0
    <A_1> = 0
    <A_2> = 0
    <Phi> = 0
    <c0> = 0
    <c0i> = 0
    <c1> = 0
    <c1i> = 0
    <Mu_ssd> = 0
    <Sigma_ssd> = 0
    <innerangle> = 0
    <outerangle> = 0
  <EndBdry>
  <BeginBdry>
    <BdryName> = "PB2"
    <BdryType> = 4
    <A_0> = 0
    <A_1> = 0
    <A_2> = 0
    <Phi> = 0
    <c0> = 0
    <c0i> = 0
    <c1> = 0
    <c1i> = 0
    <Mu_ssd> = 0
    <Sigma_ssd> = 0
    <innerangle> = 0
    <outerangle> = 0
  <EndBdry>
  <BeginBdry>
    <BdryName> = "PB3"
    <BdryType> = 4
    <A_0> = 0
    <A_1> = 0
    <A_2> = 0
    <Phi> = 0
    <c0> = 0
    <c0i> = 0
    <c1> = 0
    <c1i> = 0
    <Mu_ssd> = 0
    <Sigma_ssd> = 0
    <innerangle> = 0
    <outerangle> = 0
  <EndBdry>
  <BeginBdry>
    <BdryName> = "PB4"
    <BdryType> = 4
    <A_0> = 0
    <A_1> = 0
    <A_2> = 0
    <Phi> = 0
    <c0> = 0
    <c0i> = 0
    <c1> = 0
    <c1i> = 0
    <Mu_ssd> = 0
    <Sigma_ssd> = 0
    <innerangle> = 0
    <outerangle> = 0
  <EndBdry>
  <BeginBdry>
    <BdryName> = "PB5"
    <BdryType> = 4
    <A_0> = 0
    <A_1> = 0
    <A_2> = 0
    <Phi> = 0
    <c0> = 0
    <c0i> = 0
    <c1> = 0
    <c1i> = 0
    <Mu_ssd> = 0
    <Sigma_ssd> = 0
    <innerangle> = 0
    <outerangle> = 0
  <EndBdry>
  <BeginBdry>
    <BdryName> = "A=0"
    <BdryType> = 0
    <A_0> = 0
    <A_1> = 0
    <A_2> = 0
    <Phi> = 0
    <c0> = 0
    <c0i> = 0
    <c1> = 0
    <c1i> = 0
    <Mu_ssd> = 0
    <Sigma_ssd> = 0
    <innerangle> = 0
    <outerangle> = 0
  <EndBdry>
  <BeginBdry>
    <BdryName> = "PB6"
    <BdryType> = 4
    <A_0> = 0
    <A_1> = 0
    <A_2> = 0
    <Phi> = 0
    <c0> = 0
    <c0i> = 0
    <c1> = 0
    <c1i> = 0
    <Mu_ssd> = 0
    <Sigma_ssd> = 0
    <innerangle> = 0
    <outerangle> = 0
  <EndBdry>
  <BeginBdry>
    <BdryName> = "PB7"
    <BdryType> = 4
    <A_0> = 0
    <A_1> = 0
    <A_2> = 0
    <Phi> = 0
    <c0> = 0
    <c0i> = 0
    <c1> = 0
    <c1i> = 0
    <Mu_ssd> = 0
    <Sigma_ssd> = 0
    <innerangle> = 0
    <outerangle> = 0
  <EndBdry>
[BlockProps]  = 3
  <BeginBlock>
    <BlockName> = "M-27 Steel"
    <Mu_x> = 12138
    <Mu_y> = 12138
    <H_c> = 0
    <H_cAngle> = 0
    <J_re> = 0
    <J_im> = 0
    <Sigma> = 2
    <d_lam> = 0.63500000000000001
    <Phi_h> = 0
    <Phi_hx> = 0
    <Phi_hy> = 0
    <LamType> = 0
    <LamFill> = 0.97999999999999998
    <NStrands> = 0
    <WireD> = 0
    <BHPoints> = 47
      0	0
      0.050000000000000003	17.059828
      0.10000000000000001	25.634971
      0.14999999999999999	31.338353999999999
      0.20000000000000001	35.778996999999997
      0.25	39.602124000000003
      0.29999999999999999	43.123142999999999
      0.34999999999999998	46.520439000000003
      0.40000000000000002	49.908177000000002
      0.45000000000000001	53.368284000000003
      0.5	56.966318000000001
      0.55000000000000004	60.760271000000003
      0.59999999999999998	64.806105000000002
      0.65000000000000002	69.161803000000006
      0.69999999999999996	73.890922000000003
      0.75	79.066315000000003
      0.80000000000000004	84.774675999999999
      0.84999999999999998	91.122721999999996
      0.90000000000000002	98.246298999999993
      0.94999999999999996	106.324591
      1	115.60341699999999
      1.05	126.435124
      1.1000000000000001	139.34975900000001
      1.1499999999999999	155.187082
      1.2	175.350538
      1.25	202.312017
      1.3	240.640455
      1.3500000000000001	299.11802699999998
      1.3999999999999999	394.99338599999999
      1.45	561.72617700000001
      1.5	859.32876299999998
      1.55	1375.4668879999999
      1.6000000000000001	2191.2469139999998
      1.6499999999999999	3328.145908
      1.7	4760.5061720000003
      1.75	6535.3394490000001
      1.8	8788.9706569999998
      1.8500000000000001	11670.804346999999
      1.8999999999999999	15385.186211
      1.95	20246.553030999999
      2	26995.131141000002
      2.0499999999999998	38724.496369
      2.1000000000000001	64917.284463000004
      2.1499999999999999	101489.30933800001
      2.2000000000000002	137202.82896099999
      2.25	176835.706764
      2.2999999999999998	216374.28360900001
  <EndBlock>
  <BeginBlock>
    <BlockName> = "Air"
    <Mu_x> = 1
    <Mu_y> = 1
    <H_c> = 0
    <H_cAngle> = 0
    <J_re> = 0
    <J_im> = 0
    <Sigma> = 0
    <d_lam> = 0
    <Phi_h> = 0
    <Phi_hx> = 0
    <Phi_hy> = 0
    <LamType> = 0
    <LamFill> = 1
    <NStrands> = 0
    <WireD> = 0
    <BHPoints> = 0
  <EndBlock>
  <BeginBlock>
    <BlockName> = "N38"
    <Mu_x> = 1.05
    <Mu_y> = 1.05
    <H_c> = 944771
    <H_cAngle> = 0
    <J_re> = 0
    <J_im> = 0
    <Sigma> = 0.66700000000000004
    <d_lam> = 0
    <Phi_h> = 0
    <Phi_hx> = 0
    <Phi_hy> = 0
    <LamType> = 0
    <LamFill> = 1
    <NStrands> = 0
    <WireD> = 0
    <BHPoints> = 0
  <EndBlock>
[CircuitProps]  = 0
[NumPoints] = 64
0	72.5	0	0
6	72.5	0	0
16.440000000000001	72.5	0	0
28.440000000000001	72.5	0	0
38.880000000000003	72.5	0	0
50.880000000000003	72.5	0	0
61.319999999999993	72.5	0	0
73.319999999999993	72.5	0	0
83.759999999999991	72.5	0	0
95.759999999999991	72.5	0	0
106.2	72.5	0	0
118.2	72.5	0	0
128.63999999999999	72.5	0	0
134.63999999999999	72.5	0	0
0	112.5	0	0
134.63999999999999	112.5	0	0
11.219999999999992	0	0	0
145.86000000000001	0	0	0
145.86000000000001	-40	0	0
11.219999999999992	-40	0	0
145.86000000000001	10.75	0	0
134.63999999999999	10.75	0	0
-2.326752072262517e-016	10.75	0	0
11.219999999999992	10.75	0	0
145.86000000000001	10	0	0
11.21999999999997	10	0	0
20.440000000000001	11.5	0	0
20.440000000000001	14.5	0	0
16.440000000000001	14.5	0	0
2	11.5	0	0
2	14.5	0	0
6	14.5	0	0
42.880000000000003	11.5	0	0
42.880000000000003	14.5	0	0
38.880000000000003	14.5	0	0
24.440000000000001	11.5	0	0
24.440000000000001	14.5	0	0
28.440000000000001	14.5	0	0
65.319999999999993	11.5	0	0
65.319999999999993	14.5	0	0
61.319999999999993	14.5	0	0
46.880000000000003	11.5	0	0
46.880000000000003	14.5	0	0
50.880000000000003	14.5	0	0
87.759999999999991	11.5	0	0
87.759999999999991	14.5	0	0
83.759999999999991	14.5	0	0
69.319999999999993	11.5	0	0
69.319999999999993	14.5	0	0
73.319999999999993	14.5	0	0
110.2	11.5	0	0
110.2	14.5	0	0
106.2	14.5	0	0
91.759999999999991	11.5	0	0
91.759999999999991	14.5	0	0
95.759999999999991	14.5	0	0
132.63999999999999	11.5	0	0
132.63999999999999	14.5	0	0
128.63999999999999	14.5	0	0
114.2	11.5	0	0
114.2	14.5	0	0
118.2	14.5	0	0
-2.326752072262517e-016	11.5	0	0
134.63999999999999	11.5	0	0
[NumSegments] = 72
0	1	-1	0	0	0
2	3	-1	0	0	0
4	5	-1	0	0	0
6	7	-1	0	0	0
8	9	-1	0	0	0
10	11	-1	0	0	0
12	13	-1	0	0	0
0	14	-1	1	0	0
13	15	-1	1	0	0
15	14	-1	6	0	0
18	19	-1	6	0	2
16	19	-1	8	0	2
18	17	-1	8	0	2
20	24	-1	5	0	2
21	63	-1	3	0	0
22	62	-1	3	0	0
23	25	-1	5	0	2
23	22	-1	4	0	0
20	21	-1	4	0	0
24	17	-1	7	0	2
25	16	-1	7	0	2
26	27	-1	0	0	0
27	28	-1	0	0	0
29	30	-1	0	0	0
30	31	-1	0	0	0
29	26	-1	0	0	0
32	33	-1	0	0	0
33	34	-1	0	0	0
35	36	-1	0	0	0
36	37	-1	0	0	0
35	32	-1	0	0	0
38	39	-1	0	0	0
39	40	-1	0	0	0
41	42	-1	0	0	0
42	43	-1	0	0	0
41	38	-1	0	0	0
44	45	-1	0	0	0
45	46	-1	0	0	0
47	48	-1	0	0	0
48	49	-1	0	0	0
47	44	-1	0	0	0
50	51	-1	0	0	0
51	52	-1	0	0	0
53	54	-1	0	0	0
54	55	-1	0	0	0
53	50	-1	0	0	0
56	57	-1	0	0	0
57	58	-1	0	0	0
59	60	-1	0	0	0
60	61	-1	0	0	0
59	56	-1	0	0	0
28	2	-1	0	0	0
1	31	-1	0	0	0
3	37	-1	0	0	0
34	4	-1	0	0	0
5	43	-1	0	0	0
40	6	-1	0	0	0
7	49	-1	0	0	0
46	8	-1	0	0	0
9	55	-1	0	0	0
52	10	-1	0	0	0
11	61	-1	0	0	0
58	12	-1	0	0	0
62	0	-1	2	0	0
29	62	-1	0	0	0
26	35	-1	0	0	0
32	41	-1	0	0	0
38	47	-1	0	0	0
44	53	-1	0	0	0
50	59	-1	0	0	0
63	13	-1	2	0	0
56	63	-1	0	0	0
[NumArcSegments] = 0
[NumHoles] = 0
[NumBlockLabels] = 10
39	98	1	3	0	0	0	1	0
89	-14	1	3	0	0	2	1	0
2	55	2	3	0	0	0	1	0
23.800000000000001	52.799999999999997	2	3	0	0	0	1	0
44.899999999999999	49.200000000000003	2	3	0	0	0	1	0
66	55.200000000000003	2	3	0	0	0	1	0
89.5	51.600000000000001	2	3	0	0	0	1	0
111.8	54.899999999999999	2	3	0	0	0	1	0
132	51.600000000000001	2	3	0	0	0	1	0
0.69999999999999996	11.1	2	0.59999999999999998	0	0	0	1	0
